$pyNastran: version=msc
$pyNastran: punch=False
$pyNastran: encoding=utf-8
$pyNastran: nnodes=3123
$pyNastran: nelements=12585
$EXECUTIVE CONTROL DECK
SOL 101
CEND
$CASE CONTROL DECK
ECHO = NONE
TITLE = pyNastran for generating solverinput for for Mystran
SUBCASE 1
    DISPLACEMENT(SORT1,REAL,PLOT) = ALL
    LOAD = 1
    SPC = 1
    SPCFORCES(SORT1,REAL,PLOT) = ALL
    STRESS(SORT1,REAL,VONMISES,BILIN,PLOT) = ALL
    SUBTITLE = Default
BEGIN BULK
$PARAMS
PARAM       POST      -1
$NODES
GRID           1              0.      0.   1000.
GRID           2              0.      0.      0.
GRID           3              0.   1000.   1000.
GRID           4              0.   1000.      0.
GRID           5           8000.      0.   1000.
GRID           6           8000.      0.      0.
GRID           7           8000.   1000.   1000.
GRID           8           8000.   1000.      0.
GRID           9              0.      0.142.8571
GRID          10              0.      0.285.7143
GRID          11              0.      0.428.5714
GRID          12              0.      0.571.4286
GRID          13              0.      0.714.2857
GRID          14              0.      0.857.1429
GRID          15              0.142.8571   1000.
GRID          16              0.285.7143   1000.
GRID          17              0.428.5714   1000.
GRID          18              0.571.4286   1000.
GRID          19              0.714.2857   1000.
GRID          20              0.857.1429   1000.
$ ... 3103 like lines cut
$ELEMENTS
CTETRA      4385       1     456    2368    2199    2535
CTETRA      4386       1    2232    2544    2203    2694
CTETRA      4387       1     407    2439    2222    2892
CTETRA      4388       1     677    2253    2178    2345
CTETRA      4389       1    2024    2437    1920    2969
CTETRA      4390       1    2085    2390    2333    2566
CTETRA      4391       1    1002    2349    2159    2644
CTETRA      4392       1    2336    2935    2685    2993
CTETRA      4393       1    1372    2315    2310    2591
CTETRA      4394       1    2403    2444    2174    2579
CTETRA      4395       1    2333    2390    2140    2566
CTETRA      4396       1    2403    2579    2174    2601
CTETRA      4397       1    1611    2218    2263    2599
CTETRA      4398       1    2174    2444    2403    2601
CTETRA      4399       1    1087    2230     301    2629
CTETRA      4400       1     764    2515    2301    2549
CTETRA      4401       1    2164    2675    2688    3005
CTETRA      4402       1    2339    2668    2184    2746
CTETRA      4403       1    2144    2309    2269    2532
CTETRA      4404       1    2216    2392     761    2439
$ ... 12565 like lines cut
$PROPERTIES
PSOLID         1       1
$MATERIALS
MAT1           1 210000.              .3
$LOADS
LOAD           1      1.      1.       2
FORCE          2       5        46480.94      0.      0.     -1.
FORCE          2       6        46480.94      0.      0.     -1.
FORCE          2       7        46487.81      0.      0.     -1.
FORCE          2       8        46480.94      0.      0.     -1.
FORCE          2      33        68788.72      0.      0.     -1.
FORCE          2      34        70605.69      0.      0.     -1.
FORCE          2      35         73620.5      0.      0.     -1.
FORCE          2      36        75447.75      0.      0.     -1.
FORCE          2      37        72414.12      0.      0.     -1.
FORCE          2      38        68968.81      0.      0.     -1.
FORCE          2      39        68788.72      0.      0.     -1.
FORCE          2      40        70605.69      0.      0.     -1.
FORCE          2      41        73620.18      0.      0.     -1.
FORCE          2      42        75497.16      0.      0.     -1.
FORCE          2      43        72601.99      0.      0.     -1.
FORCE          2      44        68970.55      0.      0.     -1.
FORCE          2      45        68968.81      0.      0.     -1.
FORCE          2      46        72414.12      0.      0.     -1.
FORCE          2      47        75448.16      0.      0.     -1.
FORCE          2      48        73632.65      0.      0.     -1.
$ ... 57 like lines cut
$SPCs
SPCADD         1       2
SPC1           2  123456       1       2       3       4       9      10
              11      12      13      14      15      16      17      18
              19      20      21      22      23      24      25      26
              27      28      29      30      31      32     269     270
             271     272     273     274     275     276     277     278
             279     280     281     282     283     284     285     286
             287     288     289     290     291     292     293     294
             295     296     297     298     299     300     301     302
             303     304     305     306     307     308     309     310
             311     312     313     314     315     316     317
ENDDATA
